/*--------------------------------*- C++ -*----------------------------------*\
| =========                 |                                                 |
| \\      /  F ield         | OpenFOAM: The Open Source CFD Toolbox           |
|  \\    /   O peration     | Version:  v2406                                 |
|   \\  /    A nd           | Website:  www.openfoam.com                      |
|    \\/     M anipulation  |                                                 |
\*---------------------------------------------------------------------------*/
FoamFile
{
version     2.0;
format      ascii;
class       dictionary;
object      blockMeshDict;
}
// * * * * * * * * * * * * * * * * * * * * * * * * * * * * * * * * * * * * * //

scale 1;

vertices
(
	(0.048913 0.000000 0.000000 )
	(0.000000 0.000000 0.000000 )
	(0.000000 0.200000 0.000000 )
	(0.048913 0.200000 0.000000 )
	(0.137500 0.000000 0.000000 )
	(0.137500 0.200000 0.000000 )
	(-0.112500 0.000000 0.000000 )
	(-0.112500 0.200000 0.000000 )
	(0.024603 0.000000 0.004002 )
	(0.024603 0.200000 0.004002 )
	(0.024603 0.200000 0.125585 )
	(0.024603 0.000000 0.125585 )
	(0.024603 0.000000 -0.004002 )
	(0.024603 0.200000 -0.004002 )
	(0.024603 0.200000 -0.125585 )
	(0.024603 0.000000 -0.125585 )
	(0.048913 0.000000 0.000000 )
	(0.000000 0.000000 0.000000 )
	(0.000000 0.200000 0.000000 )
	(0.048913 0.200000 0.000000 )
	(0.137500 0.000000 0.000000 )
	(0.137500 0.200000 0.000000 )
	(-0.112500 0.000000 0.000000 )
	(-0.112500 0.200000 0.000000 )
	(0.024603 0.000000 0.004002 )
	(0.024603 0.200000 0.004002 )
	(0.024603 0.200000 0.125585 )
	(0.024603 0.000000 0.125585 )
	(0.024603 0.000000 -0.004002 )
	(0.024603 0.200000 -0.004002 )
	(0.024603 0.200000 -0.125585 )
	(0.024603 0.000000 -0.125585 )
);
edges
(
	spline 1 8
	(
		(0.000000 0.000000 0.000000 )
		(0.000013 0.000000 0.000211 )
		(0.000050 0.000000 0.000418 )
		(0.000113 0.000000 0.000623 )
		(0.000201 0.000000 0.000824 )
		(0.000314 0.000000 0.001023 )
		(0.000452 0.000000 0.001217 )
		(0.000614 0.000000 0.001409 )
		(0.000801 0.000000 0.001596 )
		(0.001013 0.000000 0.001780 )
		(0.001248 0.000000 0.001960 )
		(0.001508 0.000000 0.002135 )
		(0.001791 0.000000 0.002306 )
		(0.002097 0.000000 0.002472 )
		(0.002427 0.000000 0.002632 )
		(0.002779 0.000000 0.002788 )
		(0.003154 0.000000 0.002938 )
		(0.003550 0.000000 0.003082 )
		(0.003969 0.000000 0.003221 )
		(0.004408 0.000000 0.003353 )
		(0.004868 0.000000 0.003478 )
		(0.005349 0.000000 0.003597 )
		(0.005849 0.000000 0.003709 )
		(0.006368 0.000000 0.003815 )
		(0.006907 0.000000 0.003913 )
		(0.007463 0.000000 0.004003 )
		(0.008037 0.000000 0.004086 )
		(0.008628 0.000000 0.004162 )
		(0.009236 0.000000 0.004230 )
		(0.009860 0.000000 0.004291 )
		(0.010499 0.000000 0.004343 )
		(0.011152 0.000000 0.004388 )
		(0.011819 0.000000 0.004426 )
		(0.012500 0.000000 0.004456 )
		(0.013193 0.000000 0.004478 )
		(0.013898 0.000000 0.004492 )
		(0.014615 0.000000 0.004500 )
		(0.015341 0.000000 0.004500 )
		(0.016078 0.000000 0.004493 )
		(0.016823 0.000000 0.004478 )
		(0.017577 0.000000 0.004458 )
		(0.018338 0.000000 0.004430 )
		(0.019106 0.000000 0.004396 )
		(0.019880 0.000000 0.004357 )
		(0.020659 0.000000 0.004311 )
		(0.021442 0.000000 0.004259 )
		(0.022229 0.000000 0.004202 )
		(0.023019 0.000000 0.004140 )
		(0.023810 0.000000 0.004074 )
		(0.024603 0.000000 0.004002 )
	)
	spline 8 0
	(
		(0.024603 0.000000 0.004002 )
		(0.025397 0.000000 0.003926 )
		(0.026190 0.000000 0.003846 )
		(0.026981 0.000000 0.003763 )
		(0.027771 0.000000 0.003675 )
		(0.028558 0.000000 0.003585 )
		(0.029341 0.000000 0.003491 )
		(0.030120 0.000000 0.003395 )
		(0.030894 0.000000 0.003297 )
		(0.031662 0.000000 0.003196 )
		(0.032423 0.000000 0.003093 )
		(0.033177 0.000000 0.002989 )
		(0.033922 0.000000 0.002883 )
		(0.034659 0.000000 0.002776 )
		(0.035385 0.000000 0.002668 )
		(0.036102 0.000000 0.002559 )
		(0.036807 0.000000 0.002450 )
		(0.037500 0.000000 0.002340 )
		(0.038181 0.000000 0.002231 )
		(0.038848 0.000000 0.002122 )
		(0.039501 0.000000 0.002013 )
		(0.040140 0.000000 0.001905 )
		(0.040764 0.000000 0.001798 )
		(0.041372 0.000000 0.001691 )
		(0.041963 0.000000 0.001587 )
		(0.042537 0.000000 0.001483 )
		(0.043093 0.000000 0.001382 )
		(0.043632 0.000000 0.001283 )
		(0.044151 0.000000 0.001185 )
		(0.044651 0.000000 0.001091 )
		(0.045132 0.000000 0.000998 )
		(0.045592 0.000000 0.000909 )
		(0.046031 0.000000 0.000823 )
		(0.046450 0.000000 0.000740 )
		(0.046846 0.000000 0.000661 )
		(0.047221 0.000000 0.000585 )
		(0.047573 0.000000 0.000513 )
		(0.047903 0.000000 0.000445 )
		(0.048209 0.000000 0.000382 )
		(0.048492 0.000000 0.000322 )
		(0.048752 0.000000 0.000268 )
		(0.048752 0.000000 0.000268 )
		(0.048806 0.000000 0.000250 )
		(0.048859 0.000000 0.000218 )
		(0.048913 0.000000 0.000000 )
	)
	spline 2 9
	(
		(0.000000 0.200000 0.000000 )
		(0.000013 0.200000 0.000211 )
		(0.000050 0.200000 0.000418 )
		(0.000113 0.200000 0.000623 )
		(0.000201 0.200000 0.000824 )
		(0.000314 0.200000 0.001023 )
		(0.000452 0.200000 0.001217 )
		(0.000614 0.200000 0.001409 )
		(0.000801 0.200000 0.001596 )
		(0.001013 0.200000 0.001780 )
		(0.001248 0.200000 0.001960 )
		(0.001508 0.200000 0.002135 )
		(0.001791 0.200000 0.002306 )
		(0.002097 0.200000 0.002472 )
		(0.002427 0.200000 0.002632 )
		(0.002779 0.200000 0.002788 )
		(0.003154 0.200000 0.002938 )
		(0.003550 0.200000 0.003082 )
		(0.003969 0.200000 0.003221 )
		(0.004408 0.200000 0.003353 )
		(0.004868 0.200000 0.003478 )
		(0.005349 0.200000 0.003597 )
		(0.005849 0.200000 0.003709 )
		(0.006368 0.200000 0.003815 )
		(0.006907 0.200000 0.003913 )
		(0.007463 0.200000 0.004003 )
		(0.008037 0.200000 0.004086 )
		(0.008628 0.200000 0.004162 )
		(0.009236 0.200000 0.004230 )
		(0.009860 0.200000 0.004291 )
		(0.010499 0.200000 0.004343 )
		(0.011152 0.200000 0.004388 )
		(0.011819 0.200000 0.004426 )
		(0.012500 0.200000 0.004456 )
		(0.013193 0.200000 0.004478 )
		(0.013898 0.200000 0.004492 )
		(0.014615 0.200000 0.004500 )
		(0.015341 0.200000 0.004500 )
		(0.016078 0.200000 0.004493 )
		(0.016823 0.200000 0.004478 )
		(0.017577 0.200000 0.004458 )
		(0.018338 0.200000 0.004430 )
		(0.019106 0.200000 0.004396 )
		(0.019880 0.200000 0.004357 )
		(0.020659 0.200000 0.004311 )
		(0.021442 0.200000 0.004259 )
		(0.022229 0.200000 0.004202 )
		(0.023019 0.200000 0.004140 )
		(0.023810 0.200000 0.004074 )
		(0.024603 0.200000 0.004002 )
	)
	spline 9 3
	(
		(0.024603 0.200000 0.004002 )
		(0.025397 0.200000 0.003926 )
		(0.026190 0.200000 0.003846 )
		(0.026981 0.200000 0.003763 )
		(0.027771 0.200000 0.003675 )
		(0.028558 0.200000 0.003585 )
		(0.029341 0.200000 0.003491 )
		(0.030120 0.200000 0.003395 )
		(0.030894 0.200000 0.003297 )
		(0.031662 0.200000 0.003196 )
		(0.032423 0.200000 0.003093 )
		(0.033177 0.200000 0.002989 )
		(0.033922 0.200000 0.002883 )
		(0.034659 0.200000 0.002776 )
		(0.035385 0.200000 0.002668 )
		(0.036102 0.200000 0.002559 )
		(0.036807 0.200000 0.002450 )
		(0.037500 0.200000 0.002340 )
		(0.038181 0.200000 0.002231 )
		(0.038848 0.200000 0.002122 )
		(0.039501 0.200000 0.002013 )
		(0.040140 0.200000 0.001905 )
		(0.040764 0.200000 0.001798 )
		(0.041372 0.200000 0.001691 )
		(0.041963 0.200000 0.001587 )
		(0.042537 0.200000 0.001483 )
		(0.043093 0.200000 0.001382 )
		(0.043632 0.200000 0.001283 )
		(0.044151 0.200000 0.001185 )
		(0.044651 0.200000 0.001091 )
		(0.045132 0.200000 0.000998 )
		(0.045592 0.200000 0.000909 )
		(0.046031 0.200000 0.000823 )
		(0.046450 0.200000 0.000740 )
		(0.046846 0.200000 0.000661 )
		(0.047221 0.200000 0.000585 )
		(0.047573 0.200000 0.000513 )
		(0.047903 0.200000 0.000445 )
		(0.048209 0.200000 0.000382 )
		(0.048492 0.200000 0.000322 )
		(0.048752 0.200000 0.000268 )
		(0.048752 0.200000 0.000268 )
		(0.048806 0.200000 0.000250 )
		(0.048859 0.200000 0.000218 )
		(0.048913 0.200000 0.000000 )
	)
	spline 1 12
	(
		(0.000000 0.000000 -0.000000 )
		(0.000013 0.000000 -0.000211 )
		(0.000050 0.000000 -0.000418 )
		(0.000113 0.000000 -0.000623 )
		(0.000201 0.000000 -0.000824 )
		(0.000314 0.000000 -0.001023 )
		(0.000452 0.000000 -0.001217 )
		(0.000614 0.000000 -0.001409 )
		(0.000801 0.000000 -0.001596 )
		(0.001013 0.000000 -0.001780 )
		(0.001248 0.000000 -0.001960 )
		(0.001508 0.000000 -0.002135 )
		(0.001791 0.000000 -0.002306 )
		(0.002097 0.000000 -0.002472 )
		(0.002427 0.000000 -0.002632 )
		(0.002779 0.000000 -0.002788 )
		(0.003154 0.000000 -0.002938 )
		(0.003550 0.000000 -0.003082 )
		(0.003969 0.000000 -0.003221 )
		(0.004408 0.000000 -0.003353 )
		(0.004868 0.000000 -0.003478 )
		(0.005349 0.000000 -0.003597 )
		(0.005849 0.000000 -0.003709 )
		(0.006368 0.000000 -0.003815 )
		(0.006907 0.000000 -0.003913 )
		(0.007463 0.000000 -0.004003 )
		(0.008037 0.000000 -0.004086 )
		(0.008628 0.000000 -0.004162 )
		(0.009236 0.000000 -0.004230 )
		(0.009860 0.000000 -0.004291 )
		(0.010499 0.000000 -0.004343 )
		(0.011152 0.000000 -0.004388 )
		(0.011819 0.000000 -0.004426 )
		(0.012500 0.000000 -0.004456 )
		(0.013193 0.000000 -0.004478 )
		(0.013898 0.000000 -0.004492 )
		(0.014615 0.000000 -0.004500 )
		(0.015341 0.000000 -0.004500 )
		(0.016078 0.000000 -0.004493 )
		(0.016823 0.000000 -0.004478 )
		(0.017577 0.000000 -0.004458 )
		(0.018338 0.000000 -0.004430 )
		(0.019106 0.000000 -0.004396 )
		(0.019880 0.000000 -0.004357 )
		(0.020659 0.000000 -0.004311 )
		(0.021442 0.000000 -0.004259 )
		(0.022229 0.000000 -0.004202 )
		(0.023019 0.000000 -0.004140 )
		(0.023810 0.000000 -0.004074 )
		(0.024603 0.000000 -0.004002 )
	)
	spline 12 0
	(
		(0.024603 0.000000 -0.004002 )
		(0.025397 0.000000 -0.003926 )
		(0.026190 0.000000 -0.003846 )
		(0.026981 0.000000 -0.003763 )
		(0.027771 0.000000 -0.003675 )
		(0.028558 0.000000 -0.003585 )
		(0.029341 0.000000 -0.003491 )
		(0.030120 0.000000 -0.003395 )
		(0.030894 0.000000 -0.003297 )
		(0.031662 0.000000 -0.003196 )
		(0.032423 0.000000 -0.003093 )
		(0.033177 0.000000 -0.002989 )
		(0.033922 0.000000 -0.002883 )
		(0.034659 0.000000 -0.002776 )
		(0.035385 0.000000 -0.002668 )
		(0.036102 0.000000 -0.002559 )
		(0.036807 0.000000 -0.002450 )
		(0.037500 0.000000 -0.002340 )
		(0.038181 0.000000 -0.002231 )
		(0.038848 0.000000 -0.002122 )
		(0.039501 0.000000 -0.002013 )
		(0.040140 0.000000 -0.001905 )
		(0.040764 0.000000 -0.001798 )
		(0.041372 0.000000 -0.001691 )
		(0.041963 0.000000 -0.001587 )
		(0.042537 0.000000 -0.001483 )
		(0.043093 0.000000 -0.001382 )
		(0.043632 0.000000 -0.001283 )
		(0.044151 0.000000 -0.001185 )
		(0.044651 0.000000 -0.001091 )
		(0.045132 0.000000 -0.000998 )
		(0.045592 0.000000 -0.000909 )
		(0.046031 0.000000 -0.000823 )
		(0.046450 0.000000 -0.000740 )
		(0.046846 0.000000 -0.000661 )
		(0.047221 0.000000 -0.000585 )
		(0.047573 0.000000 -0.000513 )
		(0.047903 0.000000 -0.000445 )
		(0.048209 0.000000 -0.000382 )
		(0.048492 0.000000 -0.000322 )
		(0.048752 0.000000 -0.000268 )
		(0.048752 0.000000 -0.000268 )
		(0.048806 0.000000 -0.000250 )
		(0.048859 0.000000 -0.000218 )
		(0.048913 0.000000 -0.000000 )
	)
	spline 2 13
	(
		(0.000000 0.200000 -0.000000 )
		(0.000013 0.200000 -0.000211 )
		(0.000050 0.200000 -0.000418 )
		(0.000113 0.200000 -0.000623 )
		(0.000201 0.200000 -0.000824 )
		(0.000314 0.200000 -0.001023 )
		(0.000452 0.200000 -0.001217 )
		(0.000614 0.200000 -0.001409 )
		(0.000801 0.200000 -0.001596 )
		(0.001013 0.200000 -0.001780 )
		(0.001248 0.200000 -0.001960 )
		(0.001508 0.200000 -0.002135 )
		(0.001791 0.200000 -0.002306 )
		(0.002097 0.200000 -0.002472 )
		(0.002427 0.200000 -0.002632 )
		(0.002779 0.200000 -0.002788 )
		(0.003154 0.200000 -0.002938 )
		(0.003550 0.200000 -0.003082 )
		(0.003969 0.200000 -0.003221 )
		(0.004408 0.200000 -0.003353 )
		(0.004868 0.200000 -0.003478 )
		(0.005349 0.200000 -0.003597 )
		(0.005849 0.200000 -0.003709 )
		(0.006368 0.200000 -0.003815 )
		(0.006907 0.200000 -0.003913 )
		(0.007463 0.200000 -0.004003 )
		(0.008037 0.200000 -0.004086 )
		(0.008628 0.200000 -0.004162 )
		(0.009236 0.200000 -0.004230 )
		(0.009860 0.200000 -0.004291 )
		(0.010499 0.200000 -0.004343 )
		(0.011152 0.200000 -0.004388 )
		(0.011819 0.200000 -0.004426 )
		(0.012500 0.200000 -0.004456 )
		(0.013193 0.200000 -0.004478 )
		(0.013898 0.200000 -0.004492 )
		(0.014615 0.200000 -0.004500 )
		(0.015341 0.200000 -0.004500 )
		(0.016078 0.200000 -0.004493 )
		(0.016823 0.200000 -0.004478 )
		(0.017577 0.200000 -0.004458 )
		(0.018338 0.200000 -0.004430 )
		(0.019106 0.200000 -0.004396 )
		(0.019880 0.200000 -0.004357 )
		(0.020659 0.200000 -0.004311 )
		(0.021442 0.200000 -0.004259 )
		(0.022229 0.200000 -0.004202 )
		(0.023019 0.200000 -0.004140 )
		(0.023810 0.200000 -0.004074 )
		(0.024603 0.200000 -0.004002 )
	)
	spline 13 3
	(
		(0.024603 0.200000 -0.004002 )
		(0.025397 0.200000 -0.003926 )
		(0.026190 0.200000 -0.003846 )
		(0.026981 0.200000 -0.003763 )
		(0.027771 0.200000 -0.003675 )
		(0.028558 0.200000 -0.003585 )
		(0.029341 0.200000 -0.003491 )
		(0.030120 0.200000 -0.003395 )
		(0.030894 0.200000 -0.003297 )
		(0.031662 0.200000 -0.003196 )
		(0.032423 0.200000 -0.003093 )
		(0.033177 0.200000 -0.002989 )
		(0.033922 0.200000 -0.002883 )
		(0.034659 0.200000 -0.002776 )
		(0.035385 0.200000 -0.002668 )
		(0.036102 0.200000 -0.002559 )
		(0.036807 0.200000 -0.002450 )
		(0.037500 0.200000 -0.002340 )
		(0.038181 0.200000 -0.002231 )
		(0.038848 0.200000 -0.002122 )
		(0.039501 0.200000 -0.002013 )
		(0.040140 0.200000 -0.001905 )
		(0.040764 0.200000 -0.001798 )
		(0.041372 0.200000 -0.001691 )
		(0.041963 0.200000 -0.001587 )
		(0.042537 0.200000 -0.001483 )
		(0.043093 0.200000 -0.001382 )
		(0.043632 0.200000 -0.001283 )
		(0.044151 0.200000 -0.001185 )
		(0.044651 0.200000 -0.001091 )
		(0.045132 0.200000 -0.000998 )
		(0.045592 0.200000 -0.000909 )
		(0.046031 0.200000 -0.000823 )
		(0.046450 0.200000 -0.000740 )
		(0.046846 0.200000 -0.000661 )
		(0.047221 0.200000 -0.000585 )
		(0.047573 0.200000 -0.000513 )
		(0.047903 0.200000 -0.000445 )
		(0.048209 0.200000 -0.000382 )
		(0.048492 0.200000 -0.000322 )
		(0.048752 0.200000 -0.000268 )
		(0.048752 0.200000 -0.000268 )
		(0.048806 0.200000 -0.000250 )
		(0.048859 0.200000 -0.000218 )
		(0.048913 0.200000 -0.000000 )
	)
	arc 6 11 (-0.075888 0.000000 0.088388 )
	arc 7 10 (-0.075888 0.200000 0.088388 )
	arc 11 4 (0.100888 0.000000 0.088388 )
	arc 10 5 (0.100888 0.200000 0.088388 )
	arc 6 15 (-0.075888 0.000000 -0.088388 )
	arc 7 14 (-0.075888 0.200000 -0.088388 )
	arc 15 4 (0.100888 0.000000 -0.088388 )
	arc 14 5 (0.100888 0.200000 -0.088388 )
);
blocks
(
	hex (6 1 2 7 11 8 9 10 ) b1 (40 20 40 ) (1.000000 1.000000 1.000000 )
	hex (0 4 5 3 8 11 10 9 ) b2 (40 20 40 ) (1.000000 1.000000 1.000000 )
	hex (1 6 7 2 12 15 14 13 ) b3 (40 20 40 ) (1.000000 1.000000 1.000000 )
	hex (4 0 3 5 15 12 13 14 ) b4 (40 20 40 ) (1.000000 1.000000 1.000000 )

);
boundary
(
airfoil
{type wall;
faces
(
(8 9 2 1 )
(8 0 3 9 )
(2 13 12 1 )
(0 12 13 3 )
);
}
AMI_slave
{type patch;
faces
(
(11 10 7 6 )
(11 4 5 10 )
(6 7 14 15 )
(5 4 15 14 )
);
}
inner
{type patch;
faces
(
(10 5 3 9 )
(7 10 9 2 )
(3 5 14 13 )
(2 13 14 7 )
(11 6 1 8 )
(4 11 8 0 )
(1 6 15 12 )
(0 12 15 4 )
);
}
);