/*--------------------------------*- C++ -*----------------------------------*\
| =========                 |                                                 |
| \\      /  F ield         | OpenFOAM: The Open Source CFD Toolbox           |
|  \\    /   O peration     | Version:  v2406                                 |
|   \\  /    A nd           | Website:  www.openfoam.com                      |
|    \\/     M anipulation  |                                                 |
\*---------------------------------------------------------------------------*/
FoamFile
{
    version     2.0;
    format      ascii;
    class       dictionary;
    object      blockMeshDict;
}
// * * * * * * * * * * * * * * * * * * * * * * * * * * * * * * * * * * * * * //

scale   0.001;

vertices
( 
    (-112.5 0 0)
    (0 0 0)
    (46.840 0 0.736)
    (108.25555 0 80.34845)
// Tiefe ab hier
    (-112.5 200 0) //4
    (0 200 0)
    (46.840 200 0.736)
    (108.25555 200 80.34845)
    (47.446 0 0)
    (47.446 200 0)
    (137.5 0 0)
    (137.5 200 0)
    
// untere Hälfte
    (46.840 0 -0.736) // 12
    (108.25555 0 -80.34845) 
    (46.840 200 -0.736)
    (108.25555 200 -80.34845)

);

blocks
(
    hex (0 1 5 4 3 2 6 7) rot1 (25 50 50) simpleGrading (1 1 0.6)
    hex (8 10 11 9 2 3 7 6) rot2 (25 50 5) simpleGrading (1 1 1)
    
    hex (4 5 1 0 15 14 12 13) rot3 (25 50 50) simpleGrading (1 1 0.6)
    hex (9 11 10 8 14 15 13 12) rot4 (25 50 5) simpleGrading (1 1 1)
    
);

edges
(
  spline 2 1
  (
  (46.840 0 0.736)
  (45 0 1.086)
  (40 0 1.9675)
  (35 0 2.748)
  (30 0 3.4225)
  (25 0 3.9705)
  (20 0 4.3525)
  (15 0 4.5015)
  (12.5 0 4.456)
  (10 0 4.303)
  (7.5 0 4.009)
  (5 0 3.512)
  (3.75 0 3.15)
  (2.5 0 2.666)
  (1.25 0 1.961)
  (0.625 0 1.4205)
  (0 0 0)
  )
  
  spline 12 1
  (
  (46.840 0 -0.736)
  (45 0 -1.086)
  (40 0 -1.9675)
  (35 0 -2.748)
  (30 0 -3.4225)
  (25 0 -3.9705)
  (20 0 -4.3525)
  (15 0 -4.5015)
  (12.5 0 -4.456)
  (10 0 -4.303)
  (7.5 0 -4.009)
  (5 0 -3.512)
  (3.75 0 -3.15)
  (2.5 0 -2.666)
  (1.25 0 -1.961)
  (0.625 0 -1.4205)
  (0 0 0)
  )
  
  spline 14 5
  (
  (46.840 200 -0.736)
  (45 200 -1.086)
  (40 200 -1.9675)
  (35 200 -2.748)
  (30 200 -3.4225)
  (25 200 -3.9705)
  (20 200 -4.3525)
  (15 200 -4.5015)
  (12.5 200 -4.456)
  (10 200 -4.303)
  (7.5 200 -4.009)
  (5 200 -3.512)
  (3.75 200 -3.15)
  (2.5 200 -2.666)
  (1.25 200 -1.961)
  (0.625 200 -1.4205)
  (0 200 0)
  )
  
  arc 0 3 (12.5 0 125)
  
  spline 6 5
  (
  (46.840 200 0.736)
  (45 200 1.086)
  (40 200 1.9675)
  (35 200 2.748)
  (30 200 3.4225)
  (25 200 3.9705)
  (20 200 4.3525)
  (15 200 4.5015)
  (12.5 200 4.456)
  (10 200 4.303)
  (7.5 200 4.009)
  (5 200 3.512)
  (3.75 200 3.15)
  (2.5 200 2.666)
  (1.25 200 1.961)
  (0.625 200 1.4205)
  (0 200 0)
  )
  
  arc 4 7 (12.5 200 125)
  
  // Next Block arcs
  arc 10 3 (100.888347 0 88.3883476)
  arc 11 7 (100.888347 200 88.3883476)
  arc 8 2 (47.307 0 0.434)
  arc 9 6 (47.307 200 0.434)
  
  arc 4 15 (12.5 200 -125)
  arc 0 13 (12.5 0 -125)
  
  arc 8 12 (47.307 0 -0.434)
  arc 9 14 (47.307 200 -0.434)
  arc 10 13 (100.888347 0 -88.3883476)
  arc 11 15 (100.888347 200 -88.3883476)
);

boundary
(
    airfoil
    {
      type wall;
      faces
      (
        (2 1 5 6)
        (2 6 9 8)
        (1 12 14 5)
        (8 12 14 9)
      );
    }
    
    AMI_slave
    {
      type patch;
      faces
      (
        (0 3 7 4)
        (0 4 15 13)
        (3 7 11 10)
        (10 11 15 13)
      );
      }
);


// ************************************************************************* //
