/*--------------------------------*- C++ -*----------------------------------*\
| =========                 |                                                 |
| \\      /  F ield         | OpenFOAM: The Open Source CFD Toolbox           |
|  \\    /   O peration     | Version:  v2406                                 |
|   \\  /    A nd           | Website:  www.openfoam.com                      |
|    \\/     M anipulation  |                                                 |
\*---------------------------------------------------------------------------*/
FoamFile
{
    version     2.0;
    format      ascii;
    class       dictionary;
    object      fvSolution;
}
// * * * * * * * * * * * * * * * * * * * * * * * * * * * * * * * * * * * * * //

solvers
{
    p
    {
        solver          PCG;
        preconditioner  DIC;
        tolerance       0;
        relTol          0.01;
    }
    
    pFinal
    {
      $p;
      tolerance         1e-06;
      relTol            0;
    }

    pcorrFinal
    {
        $p;
        tolerance       0.1;
        relTol          0;
    }

    "(U|k|nuTilda)"
    {
        solver          PBiCGStab;
        preconditioner  DILU;
        tolerance       1e-8;
        relTol          0.1;
    }
    
    "(U|k|nuTilda)Final"
    {
        $U;
        tolerance       1e-6;
        relTol          0;
    }

    cellDisplacement
    {
        solver GAMG;
        smoother GaussSeidel;
        tolerance 1e-7;
        relTol 0.01;
    }
 
    
}

PIMPLE
{
    nOuterCorrectors    10;
    nCorrectors         1;
    nNonOrthogonalCorrectors 0;
}


// ************************************************************************* //
