/*--------------------------------*- C++ -*----------------------------------*\
| =========                 |                                                 |
| \\      /  F ield         | OpenFOAM: The Open Source CFD Toolbox           |
|  \\    /   O peration     | Version:  v2406                                 |
|   \\  /    A nd           | Website:  www.openfoam.com                      |
|    \\/     M anipulation  |                                                 |
\*---------------------------------------------------------------------------*/
FoamFile
{
    version     2.0;
    format      ascii;
    class       dictionary;
    object      dynamicMeshDict;
}
// * * * * * * * * * * * * * * * * * * * * * * * * * * * * * * * * * * * * * //

dynamicFvMesh  dynamicMotionSolverFvMesh;

motionSolverLibs (fvMotionSolvers);

motionSolver    solidBody;

cellZone        rotatingZone;

solidBodyMotionFunction  tabulated6DoFMotion;
CofG (1.05 0.5 0.5);
timeDataFileName "$FOAM_CASE/constant/6DoF.dat";
// ************************************************************************* //

